ligand.pdb
 OpenBabel12112218443D

 42 44  0  0  0  0  0  0  0  0999 V2000
   25.4010    8.0200   17.7900 C   0  0  0  0  0  0  0  0  0  0  0  0
   21.9060   11.6060   18.4800 C   0  0  0  0  0  0  0  0  0  0  0  0
   20.9010    0.8270   21.1180 C   0  0  0  0  0  0  0  0  0  0  0  0
   18.0950    4.5300   25.5060 C   0  0  0  0  0  0  0  0  0  0  0  0
   23.4170    7.6210   19.1740 C   0  0  0  0  0  0  0  0  0  0  0  0
   21.7440    9.3500   19.5580 C   0  0  0  0  0  0  0  0  0  0  0  0
   20.9700    3.6480   21.4400 C   0  0  0  0  0  0  0  0  0  0  0  0
   19.5210    3.4440   23.3500 C   0  0  0  0  0  0  0  0  0  0  0  0
   24.1140    8.5130   18.3710 C   0  0  0  0  0  0  0  0  0  0  0  0
   22.4240   10.2220   18.7380 C   0  0  0  0  0  0  0  0  0  0  0  0
   22.2310    8.0240   19.8240 C   0  0  0  0  0  0  0  0  0  0  0  0
   20.2710    2.8440   22.3260 C   0  0  0  0  0  0  0  0  0  0  0  0
   20.8880    5.0200   21.6080 C   0  0  0  0  0  0  0  0  0  0  0  0
   19.4640    4.7860   23.5100 C   0  0  0  0  0  0  0  0  0  0  0  0
   20.1400    5.6580   22.6410 C   0  0  0  0  0  0  0  0  0  0  0  0
   23.6200    9.8280   18.1540 C   0  0  0  0  0  0  0  0  0  0  0  0
   20.1070    7.0880   22.7510 C   0  0  0  0  0  0  0  0  0  0  0  0
   21.5020    7.2030   20.8040 C   0  0  0  0  0  0  0  0  0  0  0  0
   20.8200    7.8460   21.7920 N   0  0  0  0  0  0  0  0  0  0  0  0
   21.5540    5.8540   20.6860 N   0  0  0  0  0  0  0  0  0  0  0  0
   24.3500   10.6990   17.4410 O   0  0  0  0  0  0  0  0  0  0  0  0
   19.4660    7.7260   23.6130 O   0  0  0  0  0  0  0  0  0  0  0  0
   20.2730    1.4770   22.2030 O   0  0  0  0  0  0  0  0  0  0  0  0
   18.7640    5.3860   24.5500 O   0  0  0  0  0  0  0  0  0  0  0  0
   25.5670    6.9770   18.0980 H   0  0  0  0  0  0  0  0  0  0  0  0
   25.3530    8.0750   16.6920 H   0  0  0  0  0  0  0  0  0  0  0  0
   26.2300    8.6460   18.1520 H   0  0  0  0  0  0  0  0  0  0  0  0
   20.9560   11.7480   19.0160 H   0  0  0  0  0  0  0  0  0  0  0  0
   22.6410   12.3440   18.8340 H   0  0  0  0  0  0  0  0  0  0  0  0
   21.7420   11.7410   17.4010 H   0  0  0  0  0  0  0  0  0  0  0  0
   20.7790   -0.2610   21.2220 H   0  0  0  0  0  0  0  0  0  0  0  0
   20.4410    1.1590   20.1760 H   0  0  0  0  0  0  0  0  0  0  0  0
   21.9720    1.0770   21.1110 H   0  0  0  0  0  0  0  0  0  0  0  0
   17.5890    5.1490   26.2620 H   0  0  0  0  0  0  0  0  0  0  0  0
   17.3520    3.9090   24.9850 H   0  0  0  0  0  0  0  0  0  0  0  0
   18.8350    3.8820   25.9980 H   0  0  0  0  0  0  0  0  0  0  0  0
   23.7840    6.6130   19.3020 H   0  0  0  0  0  0  0  0  0  0  0  0
   20.8190    9.6710   20.0140 H   0  0  0  0  0  0  0  0  0  0  0  0
   21.5600    3.2180   20.6440 H   0  0  0  0  0  0  0  0  0  0  0  0
   18.9710    2.8130   24.0330 H   0  0  0  0  0  0  0  0  0  0  0  0
   22.0720    5.4440   19.9350 H   0  0  0  0  0  0  0  0  0  0  0  0
   23.8890   11.5280   17.3850 H   0  0  0  0  0  0  0  0  0  0  0  0
  1 25  1  0  0  0  0
  1 27  1  0  0  0  0
  1  9  1  0  0  0  0
  2 10  1  0  0  0  0
  2 29  1  0  0  0  0
  2 28  1  0  0  0  0
  3 31  1  0  0  0  0
  3 23  1  0  0  0  0
  4 36  1  0  0  0  0
  4 34  1  0  0  0  0
  5 37  1  0  0  0  0
  5 11  1  0  0  0  0
  6 11  2  0  0  0  0
  6 38  1  0  0  0  0
  7 13  2  0  0  0  0
  7 12  1  0  0  0  0
  8 14  1  0  0  0  0
  8 40  1  0  0  0  0
  9  5  2  0  0  0  0
 10  6  1  0  0  0  0
 11 18  1  0  0  0  0
 12  8  2  0  0  0  0
 13 15  1  0  0  0  0
 14 24  1  0  0  0  0
 15 17  1  0  0  0  0
 15 14  2  0  0  0  0
 16  9  1  0  0  0  0
 16 10  2  0  0  0  0
 17 22  2  0  0  0  0
 18 19  2  0  0  0  0
 19 17  1  0  0  0  0
 20 18  1  0  0  0  0
 20 13  1  0  0  0  0
 21 16  1  0  0  0  0
 23 12  1  0  0  0  0
 24  4  1  0  0  0  0
 26  1  1  0  0  0  0
 30  2  1  0  0  0  0
 32  3  1  0  0  0  0
 33  3  1  0  0  0  0
 35  4  1  0  0  0  0
 39  7  1  0  0  0  0
 41 20  1  0  0  0  0
 42 21  1  0  0  0  0
M  END
$$$$
